Circuit: *** SPICE deck for cell Inv_sim{sch} from library new

Ignoring BSIM parameter XL
Ignoring BSIM parameter XW
Ignoring BSIM parameter XL
Ignoring BSIM parameter XW
Warning: Pd = 0 is less than W.
Warning: Ps = 0 is less than W.
Warning: Pd = 0 is less than W.
Warning: Ps = 0 is less than W.
Direct Newton iteration for .op point succeeded.

tf=3.29043e-009 FROM 1.37569e-008 TO 1.70473e-008
tr=3.76988e-009 FROM 5.59594e-008 TO 5.97293e-008


Date: Sat Apr 15 10:56:49 2023
Total elapsed time: 0.228 seconds.

tnom = 27
temp = 27
method = modified trap
totiter = 2116
traniter = 2110
tranpoints = 1054
accept = 1054
rejected = 0
matrix size = 5
fillins = 0
solver = Normal
Matrix Compiler1: 204 bytes object code size  0.1/0.0/[0.0]
Matrix Compiler2: off  [0.0]/0.0/0.0

