Circuit: *** SPICE deck for cell Inverter{lay} from library new

Ignoring BSIM parameter XL
Ignoring BSIM parameter XW
Ignoring BSIM parameter XL
Ignoring BSIM parameter XW
WARNING: Node NMOS@0_N-TRANS-WELL is floating.
WARNING: Node PMOS@0_P-TRANS-WELL is floating.

WARNING: Less than two connections to node NMOS@0_N-TRANS-WELL.  This node is used by MNMOS@0.
WARNING: Less than two connections to node PMOS@0_P-TRANS-WELL.  This node is used by MPMOS@0.
Direct Newton iteration for .op point succeeded.

tf=3.45072e-009 FROM 1.3695e-008 TO 1.71458e-008
tr=3.89675e-009 FROM 5.57896e-008 TO 5.96863e-008


Date: Sat Apr 15 12:32:12 2023
Total elapsed time: 0.260 seconds.

tnom = 27
temp = 27
method = modified trap
totiter = 2134
traniter = 2110
tranpoints = 1054
accept = 1054
rejected = 0
matrix size = 7
fillins = 2
solver = Normal
Matrix Compiler1: 366 bytes object code size  0.1/0.1/[0.1]
Matrix Compiler2: 617 bytes object code size  0.1/0.1/[0.1]

