Circuit: *** SPICE deck for cell Nand{lay} from library NAND

Ignoring BSIM parameter XL
Ignoring BSIM parameter XW
Ignoring BSIM parameter XL
Ignoring BSIM parameter XW
WARNING: Node NMOS@0_N-TRANS-WELL is floating.
WARNING: Node NMOS@1_N-TRANS-WELL is floating.
WARNING: Node PMOS@0_P-TRANS-WELL is floating.
WARNING: Node PMOS@1_P-TRANS-WELL is floating.

WARNING: Less than two connections to node NMOS@0_N-TRANS-WELL.  This node is used by MNMOS@0.
WARNING: Less than two connections to node NMOS@1_N-TRANS-WELL.  This node is used by MNMOS@1.
WARNING: Less than two connections to node PMOS@0_P-TRANS-WELL.  This node is used by MPMOS@0.
WARNING: Less than two connections to node PMOS@1_P-TRANS-WELL.  This node is used by MPMOS@1.
Direct Newton iteration for .op point succeeded.

tf=2.24552e-009 FROM 1.44297e-008 TO 1.66752e-008
tr=2.55913e-009 FROM 5.44868e-008 TO 5.70459e-008


Date: Mon Apr 17 07:13:30 2023
Total elapsed time: 0.243 seconds.

tnom = 27
temp = 27
method = modified trap
totiter = 2432
traniter = 2410
tranpoints = 1089
accept = 1081
rejected = 8
matrix size = 12
fillins = 14
solver = Normal
Matrix Compiler1: 1.42 KB object code size  0.5/0.2/[0.1]
Matrix Compiler2: 1.37 KB object code size  0.1/0.2/[0.1]

