Circuit: *** SPICE deck for cell Nor{lay} from library NOR

Ignoring BSIM parameter XL
Ignoring BSIM parameter XW
Ignoring BSIM parameter XL
Ignoring BSIM parameter XW
WARNING: Node NMOS@0_N-TRANS-WELL is floating.
WARNING: Node NMOS@1_N-TRANS-WELL is floating.
WARNING: Node PMOS@0_P-TRANS-WELL is floating.
WARNING: Node PMOS@1_P-TRANS-WELL is floating.

WARNING: Less than two connections to node NMOS@0_N-TRANS-WELL.  This node is used by MNMOS@0.
WARNING: Less than two connections to node NMOS@1_N-TRANS-WELL.  This node is used by MNMOS@1.
WARNING: Less than two connections to node PMOS@0_P-TRANS-WELL.  This node is used by MPMOS@0.
WARNING: Less than two connections to node PMOS@1_P-TRANS-WELL.  This node is used by MPMOS@1.
Direct Newton iteration for .op point succeeded.

tf=1.24625e-009 FROM 1.20841e-008 TO 1.33304e-008
tr=1.85858e-009 FROM 1.35876e-007 TO 1.37735e-007


Date: Sat Apr 15 18:21:38 2023
Total elapsed time: 0.202 seconds.

tnom = 27
temp = 27
method = modified trap
totiter = 2381
traniter = 2357
tranpoints = 1080
accept = 1076
rejected = 4
matrix size = 12
fillins = 14
solver = Normal
Matrix Compiler1: 1.34 KB object code size  0.3/0.1/[0.1]
Matrix Compiler2: off  [0.1]/0.1/0.2

