Circuit: *** SPICE deck for cell Nor_sim{sch} from library NOR

Ignoring BSIM parameter XL
Ignoring BSIM parameter XW
Ignoring BSIM parameter XL
Ignoring BSIM parameter XW
Warning: Pd = 0 is less than W.
Warning: Ps = 0 is less than W.
Warning: Pd = 0 is less than W.
Warning: Ps = 0 is less than W.
Direct Newton iteration for .op point succeeded.

tf=1.01456e-009 FROM 1.21387e-008 TO 1.31533e-008
tr=1.97723e-009 FROM 1.35585e-007 TO 1.37562e-007


Date: Sat Apr 15 18:22:46 2023
Total elapsed time: 0.199 seconds.

tnom = 27
temp = 27
method = modified trap
totiter = 2529
traniter = 2520
tranpoints = 1079
accept = 1076
rejected = 3
matrix size = 8
fillins = 0
solver = Normal
Matrix Compiler1: 354 bytes object code size  0.2/0.1/[0.1]
Matrix Compiler2: 658 bytes object code size  0.2/0.1/[0.1]

